LAMMPS (29 Aug 2024 - Update 1)
# Minimization of Sigma13 disconnections using LAMMPS
#------------------General settings for simulation----------------------------
clear
units metal
dimension 3
boundary m p p
atom_style atomic
neighbor 0.3 bin
neigh_modify delay 5
atom_modify map array sort 0 0.0

#----------------- Variable declaration---------------------------------------
variable a equal 3.615
variable potpath string /opt/homebrew/Cellar/lammps/20240829-update1/share/lammps/potentials/Cu_mishin1.eam.alloy
variable sigma equal 13
variable y_image equal 1
variable dispy equal 0.0
variable dispz equal -1.35
variable elem string Cu
variable mis equal 67.0
variable folder string output/Cu/Sigma13/Misorientation67.0/size1/b1.0h-2.51/
variable file_name string output/Cu/Sigma13/Misorientation67.0/size1/b1.0h-2.51/data.Cus13.0inc0.0_size1disc2
variable out_file1 string output/Cu/Sigma13/Misorientation67.0/size1/b1.0h-2.51/data.Cus13.0inc0.0_size1disc2_min
variable out_file_mov string output/Cu/Sigma13/Misorientation67.0/size1/b1.0h-2.51/data.Cus13.0inc0.0_size1disc2_minmov

#----------------------- Atomic structure ----------------------
lattice fcc $a
lattice fcc 3.615
Lattice spacing in x,y,z = 3.615 3.615 3.615
read_data output/Cu/Sigma13/Misorientation67.0/size1/b1.0h-2.51/data.Cus13.0inc0.0_size1disc2
Reading data file ...
  triclinic box = (-100.1 -13.034063 -3.615) to (100.1 13.034063 3.615) with tilt (0 0 0)
  reading atoms ...
  3182 atoms
group upper type 1
1630 atoms in group upper
group lower type 2
1552 atoms in group lower

#----------------------- InterAtomic Potential --------------------
pair_style eam/alloy
pair_coeff * * /opt/homebrew/Cellar/lammps/20240829-update1/share/lammps/potentials/Cu_mishin1.eam.alloy Cu Cu
Reading eam/alloy potential file /opt/homebrew/Cellar/lammps/20240829-update1/share/lammps/potentials/Cu_mishin1.eam.alloy with DATE: 2007-10-12
neighbor 2 bin
neigh_modify delay 10 check yes

#-------------------- Define compute settings ------------------------
compute csym all centro/atom fcc
compute energy all pe/atom
compute eng all reduce sum c_energy

#---------- Displace top part for lowest energy structure ----------
delete_atoms overlap 1 upper upper
System init for delete_atoms ...
Deleted 0 atoms, new total = 3182
delete_atoms overlap 1 lower lower
System init for delete_atoms ...
Deleted 0 atoms, new total = 3182
delete_atoms overlap 0.1 upper lower
System init for delete_atoms ...
Deleted 0 atoms, new total = 3182
displace_atoms upper move 0 0 -1.35 units box
Displacing atoms ...

# Apply fix to tether centroid of the system to the center

#--------------------- Minimize ------------------------------------
thermo 250
thermo_style custom step temp pe lx ly lz press pxx pyy pzz
dump 1 all custom 100 output/Cu/Sigma13/Misorientation67.0/size1/b1.0h-2.51/data.Cus13.0inc0.0_size1disc2_minmov id type x y z c_csym c_energy
min_style cg
minimize 1e-25 1e-25 10000 10000

CITE-CITE-CITE-CITE-CITE-CITE-CITE-CITE-CITE-CITE-CITE-CITE-CITE

Your simulation uses code contributions which should be cited:

- Type Label Framework: https://doi.org/10.1021/acs.jpcb.3c08419

@Article{Gissinger24,
 author = {Jacob R. Gissinger, Ilia Nikiforov, Yaser Afshar, Brendon Waters, Moon-ki Choi, Daniel S. Karls, Alexander Stukowski, Wonpil Im, Hendrik Heinz, Axel Kohlmeyer, and Ellad B. Tadmor},
 title = {Type Label Framework for Bonded Force Fields in LAMMPS},
 journal = {J. Phys. Chem. B},
 year =    2024,
 volume =  128,
 number =  13,
 pages =   {3282â€“-3297}
}

CITE-CITE-CITE-CITE-CITE-CITE-CITE-CITE-CITE-CITE-CITE-CITE-CITE

Step          Temp          PotEng           Lx             Ly             Lz           Press           Pxx            Pyy            Pzz
0   0             -11151.229      200.2          26.068127      7.23           4764.8993      7315.2283      2768.1837      4211.2859
Averages over the last 4 of 8 rows, steps 1000 to 1525:
Temp PotEng Lx Ly Lz Press Pxx Pyy Pzz
0 -11218.9 200.2 26.0681 7.23 -1242.38 -9.6882e-05 -2220.4 -1506.75
Loop time of 11.0105 on 1 procs for 1525 steps with 3182 atoms

Minimization stats:
  Stopping criterion = energy tolerance
  Energy initial, next-to-last, final =
  Force two-norm initial, final = 96.339116 7.603823e-11
  Force max component initial, final = 17.067173 2.4048277e-11
  Final line search alpha, max atom move = 1 2.4048277e-11
  Iterations, force evaluations = 1525 3004

write_data output/Cu/Sigma13/Misorientation67.0/size1/b1.0h-2.51/data.Cus13.0inc0.0_size1disc2_min
System init for write_data ...
